data_D-beta-PC
_audit_creation_date              2021-03-28
_audit_creation_method            'Materials Studio'
_symmetry_space_group_name_H-M    'P1'
_symmetry_Int_Tables_number       1
_symmetry_cell_setting            triclinic
loop_
_symmetry_equiv_pos_as_xyz
  x,y,z
_cell_length_a                    4.7600
_cell_length_b                    2.9500
_cell_length_c                    15.0000
_cell_angle_alpha                 90.0000
_cell_angle_beta                  90.0000
_cell_angle_gamma                 90.0000
loop_
_atom_site_label
_atom_site_type_symbol
_atom_site_fract_x
_atom_site_fract_y
_atom_site_fract_z
_atom_site_U_iso_or_equiv
_atom_site_adp_type
_atom_site_occupancy
P1     P     0.00000   0.00000   0.00000   0.00000  Uiso   1.00
C2     C     0.20275   0.50000   0.03518   0.00000  Uiso   1.00
C3     C     0.45714   0.50000   0.07931   0.00000  Uiso   1.00
P4     P     0.65992   1.00000   0.11449   0.00000  Uiso   1.00
loop_
_geom_bond_atom_site_label_1
_geom_bond_atom_site_label_2
_geom_bond_distance
_geom_bond_site_symmetry_2
_ccdc_geom_bond_type
P1     C2      1.840   .     S
P1     P4      2.360   1_445 S
P1     C2      1.840   1_545 S
C2     P1      1.840   1_565 S
C2     C3      1.380   .     S
C3     P4      1.840   .     S
C3     P4      1.840   1_545 S
P4     P1      2.360   1_665 S
P4     C3      1.840   1_565 S
