data_Talpha
_audit_creation_date              2021-04-14
_audit_creation_method            'Materials Studio'
_symmetry_space_group_name_H-M    'P2'
_symmetry_Int_Tables_number       3
_symmetry_cell_setting            monoclinic
loop_
_symmetry_equiv_pos_as_xyz
  x,y,z
  -x,y,-z
_cell_length_a                    5.0900
_cell_length_b                    15.0000
_cell_length_c                    9.7600
_cell_angle_alpha                 90.0000
_cell_angle_beta                  90.0000
_cell_angle_gamma                 90.0000
loop_
_atom_site_label
_atom_site_type_symbol
_atom_site_fract_x
_atom_site_fract_y
_atom_site_fract_z
_atom_site_U_iso_or_equiv
_atom_site_adp_type
_atom_site_occupancy
P1     P     0.14788  -0.00415   0.22554   0.00000  Uiso   1.00
P2     P     0.09500  -0.15306   0.27465   0.00000  Uiso   1.00
P3     P    -0.40500  -0.00170   0.23048   0.00000  Uiso   1.00
P4     P    -0.35215  -0.15059   0.27955   0.00000  Uiso   1.00
C9     C     0.12224  -0.14523   0.46297   0.00000  Uiso   1.00
C11    C    -0.37229  -0.14531   0.46827   0.00000  Uiso   1.00
C13    C     0.12769  -0.00935   1.03174   0.00000  Uiso   1.00
C15    C    -0.37775  -0.00944   1.03702   0.00000  Uiso   1.00
loop_
_geom_bond_atom_site_label_1
_geom_bond_atom_site_label_2
_geom_bond_distance
_geom_bond_site_symmetry_2
_ccdc_geom_bond_type
P1     P2      2.300   .     S
P1     P3      2.277   1_655 S
P1     C13     1.896   1_554 S
P2     P4      2.277   .     S
P2     C9      1.847   .     S
P3     P4      2.300   .     S
P3     P1      2.277   1_455 S
P3     C15     1.897   1_554 S
P4     C11     1.846   .     S
C9     C9      1.439   2_556 S
C9     C11     1.439   2_556 S
C11    C9      1.439   2_556 S
C11    C11     1.440   2_456 S
C13    C13     1.440   2_557 S
C13    P1      1.896   1_556 S
C13    C15     1.439   2_557 S
C15    C13     1.439   2_557 S
C15    C15     1.439   2_457 S
C15    P3      1.897   1_556 S
