data_D-alpha-PC
_audit_creation_date              2021-03-28
_audit_creation_method            'Materials Studio'
_symmetry_space_group_name_H-M    'P1'
_symmetry_Int_Tables_number       1
_symmetry_cell_setting            triclinic
loop_
_symmetry_equiv_pos_as_xyz
  x,y,z
_cell_length_a                    8.7300
_cell_length_b                    2.9500
_cell_length_c                    20.0000
_cell_angle_alpha                 90.0000
_cell_angle_beta                  90.0000
_cell_angle_gamma                 90.0000
loop_
_atom_site_label
_atom_site_type_symbol
_atom_site_fract_x
_atom_site_fract_y
_atom_site_fract_z
_atom_site_U_iso_or_equiv
_atom_site_adp_type
_atom_site_occupancy
P1     P     0.00000   0.00000   0.11128   0.00000  Uiso   1.00
P2     P     0.41008   1.00000   0.11128   0.00000  Uiso   1.00
C3     C     0.11569   0.50000   0.11128   0.00000  Uiso   1.00
C4     C     0.28408   0.50000   0.11128   0.00000  Uiso   1.00
P5     P     0.50000   0.00000   0.00000   0.00000  Uiso   1.00
C6     C     0.61569   0.50000   0.00000   0.00000  Uiso   1.00
C7     C     0.77377   0.50000   0.00000   0.00000  Uiso   1.00
P8     P     0.88946   0.00000   0.00000   0.00000  Uiso   1.00
loop_
_geom_bond_atom_site_label_1
_geom_bond_atom_site_label_2
_geom_bond_distance
_geom_bond_site_symmetry_2
_ccdc_geom_bond_type
P1     C3      1.788   .     S
P1     P8      2.426   1_455 S
P1     C3      1.788   1_545 S
P2     C4      1.840   .     S
P2     P5      2.360   1_565 S
P2     C4      1.840   1_565 S
C3     P1      1.788   1_565 S
C3     C4      1.470   .     S
C4     P2      1.840   1_545 S
P5     P2      2.360   1_545 S
P5     C6      1.788   .     S
P5     C6      1.788   1_545 S
C6     P5      1.788   1_565 S
C6     C7      1.380   .     S
C7     P8      1.788   .     S
C7     P8      1.788   1_565 S
P8     P1      2.426   1_655 S
P8     C7      1.788   1_545 S
