data_S-alpha-PC
_audit_creation_date              2021-03-21
_audit_creation_method            'Materials Studio'
_symmetry_space_group_name_H-M    'P1'
_symmetry_Int_Tables_number       1
_symmetry_cell_setting            triclinic
loop_
_symmetry_equiv_pos_as_xyz
  x,y,z
_cell_length_a                    2.9400
_cell_length_b                    20.0000
_cell_length_c                    8.4100
_cell_angle_alpha                 90.0000
_cell_angle_beta                  90.0000
_cell_angle_gamma                 90.0000
loop_
_atom_site_label
_atom_site_type_symbol
_atom_site_fract_x
_atom_site_fract_y
_atom_site_fract_z
_atom_site_U_iso_or_equiv
_atom_site_adp_type
_atom_site_occupancy
P1     P     0.00000   0.09373   0.00000   0.00000  Uiso   1.00
C2     C    -0.00000   0.14616  -0.34686   0.00000  Uiso   1.00
P3     P    -0.50000   0.18364  -0.24480   0.00000  Uiso   1.00
C4     C    -0.50000   0.12247  -0.07824   0.00000  Uiso   1.00
P5     P    -0.00000   0.08991  -0.50000   0.00000  Uiso   1.00
P6     P    -0.50000   0.00000  -0.74480   0.00000  Uiso   1.00
C7     C    -1.00000   0.03749  -0.84686   0.00000  Uiso   1.00
C8     C    -0.50000   0.06118  -0.57824   0.00000  Uiso   1.00
loop_
_geom_bond_atom_site_label_1
_geom_bond_atom_site_label_2
_geom_bond_distance
_geom_bond_site_symmetry_2
_ccdc_geom_bond_type
P1     C4      1.710   .     S
P1     C7      1.710   1_656 S
P1     C4      1.710   1_655 S
C2     P3      1.860   .     S
C2     P5      1.710   .     S
C2     P3      1.860   1_655 S
P3     C4      1.860   .     S
P3     C2      1.860   1_455 S
C4     P1      1.710   1_455 S
P5     C8      1.710   .     S
P5     C8      1.710   1_655 S
P6     C8      1.860   .     S
P6     C7      1.860   .     S
P6     C7      1.860   1_655 S
C7     P1      1.710   1_454 S
C7     P6      1.860   1_455 S
C8     P5      1.710   1_455 S
