data_Cbeta
_audit_creation_date              2021-04-14
_audit_creation_method            'Materials Studio'
_symmetry_space_group_name_H-M    'P21/M'
_symmetry_Int_Tables_number       11
_symmetry_cell_setting            monoclinic
loop_
_symmetry_equiv_pos_as_xyz
  x,y,z
  -x,y+1/2,-z
  -x,-y,-z
  x,-y+1/2,z
_cell_length_a                    5.6500
_cell_length_b                    4.9100
_cell_length_c                    10.0000
_cell_angle_alpha                 90.0000
_cell_angle_beta                  90.0000
_cell_angle_gamma                 90.0000
loop_
_atom_site_label
_atom_site_type_symbol
_atom_site_fract_x
_atom_site_fract_y
_atom_site_fract_z
_atom_site_U_iso_or_equiv
_atom_site_adp_type
_atom_site_occupancy
C1     C     0.08900  -0.09733   0.02017   0.00000  Uiso   1.00
P9     P     0.63008  -0.02209  -0.09007   0.00000  Uiso   1.00
loop_
_geom_bond_atom_site_label_1
_geom_bond_atom_site_label_2
_geom_bond_distance
_geom_bond_site_symmetry_2
_ccdc_geom_bond_type
C1     C1      1.445   3     S
C1     P9      1.831   3_655 S
C1     C1      1.499   4_545 S
P9     C1      1.831   3_655 S
P9     P9      2.335   3_655 S
P9     P9      2.672   4     S
P9     P9      2.238   4_545 S
