data_ribbon1b
_audit_creation_date              2021-06-05
_audit_creation_method            'Materials Studio'
_symmetry_space_group_name_H-M    'P1'
_symmetry_Int_Tables_number       1
_symmetry_cell_setting            triclinic
loop_
_symmetry_equiv_pos_as_xyz
  x,y,z
_cell_length_a                    15.0000
_cell_length_b                    5.1100
_cell_length_c                    25.0000
_cell_angle_alpha                 90.0000
_cell_angle_beta                  90.0000
_cell_angle_gamma                 90.0000
loop_
_atom_site_label
_atom_site_type_symbol
_atom_site_fract_x
_atom_site_fract_y
_atom_site_fract_z
_atom_site_U_iso_or_equiv
_atom_site_adp_type
_atom_site_occupancy
C1     C     0.00917   0.37807   0.41036   0.00000  Uiso   1.00
C2     C     0.00751   0.87286   0.41211   0.00000  Uiso   1.00
P3     P    -0.06108   0.14811   0.50200   0.00000  Uiso   1.00
P4     P     0.06233   0.09526   0.55543   0.00000  Uiso   1.00
C5     C     0.00917   0.12193   0.62216   0.00000  Uiso   1.00
C6     C     0.00751   0.62714   0.62391   0.00000  Uiso   1.00
P7     P     0.06108   0.64811   0.55700   0.00000  Uiso   1.00
P8     P    -0.06233   0.59526   0.50357   0.00000  Uiso   1.00
C9     C    -0.00917   0.62193   0.43684   0.00000  Uiso   1.00
C10    C    -0.00751   0.12714   0.43509   0.00000  Uiso   1.00
P11    P     0.06108   0.85189   0.76880   0.00000  Uiso   1.00
P12    P    -0.06233   0.90474   0.71537   0.00000  Uiso   1.00
C13    C    -0.00917   0.87807   0.64864   0.00000  Uiso   1.00
C14    C    -0.00751   0.37286   0.64689   0.00000  Uiso   1.00
P15    P    -0.06108   0.35189   0.71380   0.00000  Uiso   1.00
P16    P     0.06233   0.40474   0.76723   0.00000  Uiso   1.00
C17    C     0.00917   0.37807   0.83396   0.00000  Uiso   1.00
C18    C     0.00751   0.87286   0.83571   0.00000  Uiso   1.00
C19    C    -0.00917   0.62193   0.86044   0.00000  Uiso   1.00
C20    C    -0.00751   0.12714   0.85869   0.00000  Uiso   1.00
loop_
_geom_bond_atom_site_label_1
_geom_bond_atom_site_label_2
_geom_bond_distance
_geom_bond_site_symmetry_2
_ccdc_geom_bond_type
C1     C10     1.445   .     S
C1     C9      1.438   .     S
C2     C9      1.445   .     S
C2     C10     1.438   1_565 S
P3     P4      2.299   .     S
P3     P8      2.285   .     S
P3     C10     1.859   .     S
P4     C5      1.854   .     S
P4     P7      2.285   1_545 S
C5     C14     1.445   .     S
C5     C13     1.438   1_545 S
C6     P7      1.859   .     S
C6     C13     1.445   .     S
C6     C14     1.438   .     S
P7     P8      2.299   .     S
P7     P4      2.285   1_565 S
P8     C9      1.854   .     S
C10    C2      1.438   1_545 S
P11    P12     2.299   .     S
P11    P16     2.285   .     S
P11    C18     1.859   .     S
P12    C13     1.854   .     S
P12    P15     2.285   1_565 S
C13    C5      1.438   1_565 S
C14    P15     1.859   .     S
P15    P16     2.299   .     S
P15    P12     2.285   1_545 S
P16    C17     1.854   .     S
C17    C20     1.445   .     S
C17    C19     1.438   .     S
C18    C19     1.445   .     S
C18    C20     1.438   1_565 S
C20    C18     1.438   1_545 S
