data_ribbon1a
_audit_creation_date              2021-06-05
_audit_creation_method            'Materials Studio'
_symmetry_space_group_name_H-M    'P1'
_symmetry_Int_Tables_number       1
_symmetry_cell_setting            triclinic
loop_
_symmetry_equiv_pos_as_xyz
  x,y,z
_cell_length_a                    15.0000
_cell_length_b                    25.3300
_cell_length_c                    10.5900
_cell_angle_alpha                 90.0000
_cell_angle_beta                  90.0000
_cell_angle_gamma                 90.0000
loop_
_atom_site_label
_atom_site_type_symbol
_atom_site_fract_x
_atom_site_fract_y
_atom_site_fract_z
_atom_site_U_iso_or_equiv
_atom_site_adp_type
_atom_site_occupancy
C1     C     0.00751   0.12652   0.47288   0.00000  Uiso   1.00
P2     P     0.06108   0.13075   0.31492   0.00000  Uiso   1.00
P3     P    -0.06233   0.12009   0.18878   0.00000  Uiso   1.00
C4     C    -0.00917   0.12547   0.03125   0.00000  Uiso   1.00
P5     P     0.06108   0.17186   0.81492   0.00000  Uiso   1.00
P6     P    -0.06233   0.18252   0.68878   0.00000  Uiso   1.00
C7     C    -0.00917   0.17714   0.53125   0.00000  Uiso   1.00
C8     C    -0.00751   0.07522   0.52712   0.00000  Uiso   1.00
P9     P    -0.06108   0.07099   0.68508   0.00000  Uiso   1.00
P10    P     0.06233   0.08165   0.81122   0.00000  Uiso   1.00
C11    C     0.00917   0.07627   0.96875   0.00000  Uiso   1.00
C12    C     0.00751   0.17609   0.97288   0.00000  Uiso   1.00
P13    P    -0.06108   0.23162   0.18508   0.00000  Uiso   1.00
P14    P     0.06233   0.22096   0.31122   0.00000  Uiso   1.00
C15    C     0.00917   0.22633   0.46875   0.00000  Uiso   1.00
C16    C     0.00751   0.32826   0.47288   0.00000  Uiso   1.00
P17    P     0.06108   0.33249   0.31492   0.00000  Uiso   1.00
P18    P    -0.06233   0.32182   0.18878   0.00000  Uiso   1.00
C19    C    -0.00917   0.32720   0.03125   0.00000  Uiso   1.00
C20    C    -0.00751   0.22739   0.02712   0.00000  Uiso   1.00
P21    P     0.06108   0.37359   0.81492   0.00000  Uiso   1.00
P22    P    -0.06233   0.38426   0.68878   0.00000  Uiso   1.00
C23    C    -0.00917   0.37888   0.53125   0.00000  Uiso   1.00
C24    C    -0.00751   0.27696   0.52712   0.00000  Uiso   1.00
P25    P    -0.06108   0.27273   0.68508   0.00000  Uiso   1.00
P26    P     0.06233   0.28339   0.81122   0.00000  Uiso   1.00
C27    C     0.00917   0.27801   0.96875   0.00000  Uiso   1.00
C28    C     0.00751   0.37782   0.97288   0.00000  Uiso   1.00
P29    P    -0.06108   0.43335   0.18508   0.00000  Uiso   1.00
P30    P     0.06233   0.42269   0.31122   0.00000  Uiso   1.00
C31    C     0.00917   0.42807   0.46875   0.00000  Uiso   1.00
C32    C    -0.00751   0.42912   0.02712   0.00000  Uiso   1.00
C33    C    -0.00751   0.47869   0.52712   0.00000  Uiso   1.00
P34    P    -0.06108   0.47446   0.68508   0.00000  Uiso   1.00
P35    P     0.06233   0.48512   0.81122   0.00000  Uiso   1.00
C36    C     0.00917   0.47974   0.96875   0.00000  Uiso   1.00
loop_
_geom_bond_atom_site_label_1
_geom_bond_atom_site_label_2
_geom_bond_distance
_geom_bond_site_symmetry_2
_ccdc_geom_bond_type
C1     P2      1.859   .     S
C1     C7      1.445   .     S
C1     C8      1.438   .     S
P2     P3      2.299   .     S
P2     P14     2.285   .     S
P3     C4      1.854   .     S
C4     C11     1.438   1_554 S
C4     C12     1.445   1_554 S
P5     P6      2.299   .     S
P5     P10     2.285   .     S
P5     C12     1.859   .     S
P6     C7      1.854   .     S
P6     P25     2.285   .     S
C7     C15     1.438   .     S
C8     P9      1.859   .     S
P9     P10     2.299   .     S
P10    C11     1.854   .     S
C11    C4      1.438   1_556 S
C12    C4      1.445   1_556 S
C12    C20     1.438   1_556 S
P13    P14     2.299   .     S
P13    P18     2.285   .     S
P13    C20     1.859   .     S
P14    C15     1.854   .     S
C15    C24     1.445   .     S
C16    P17     1.859   .     S
C16    C23     1.445   .     S
C16    C24     1.438   .     S
P17    P18     2.299   .     S
P17    P30     2.285   .     S
P18    C19     1.854   .     S
C19    C27     1.438   1_554 S
C19    C28     1.445   1_554 S
C20    C12     1.438   1_554 S
C20    C27     1.445   1_554 S
P21    P22     2.299   .     S
P21    P26     2.285   .     S
P21    C28     1.859   .     S
P22    C23     1.854   .     S
P22    P34     2.285   .     S
C23    C31     1.438   .     S
C24    P25     1.859   .     S
P25    P26     2.299   .     S
P26    C27     1.854   .     S
C27    C19     1.438   1_556 S
C27    C20     1.445   1_556 S
C28    C19     1.445   1_556 S
C28    C32     1.438   1_556 S
P29    P30     2.299   .     S
P29    C32     1.859   .     S
P30    C31     1.854   .     S
C31    C33     1.445   .     S
C32    C28     1.438   1_554 S
C32    C36     1.445   1_554 S
C33    P34     1.859   .     S
P34    P35     2.299   .     S
P35    C36     1.854   .     S
C36    C32     1.445   1_556 S
