data_ribbon3b
_audit_creation_date              2021-06-05
_audit_creation_method            'Materials Studio'
_symmetry_space_group_name_H-M    'P1'
_symmetry_Int_Tables_number       1
_symmetry_cell_setting            triclinic
loop_
_symmetry_equiv_pos_as_xyz
  x,y,z
_cell_length_a                    15.0000
_cell_length_b                    5.1100
_cell_length_c                    32.0000
_cell_angle_alpha                 90.0000
_cell_angle_beta                  90.0000
_cell_angle_gamma                 90.0000
loop_
_atom_site_label
_atom_site_type_symbol
_atom_site_fract_x
_atom_site_fract_y
_atom_site_fract_z
_atom_site_U_iso_or_equiv
_atom_site_adp_type
_atom_site_occupancy
C1     C     0.00917   0.37807   0.32060   0.00000  Uiso   1.00
C2     C     0.00751   0.87286   0.32196   0.00000  Uiso   1.00
P3     P    -0.06108   0.14811   0.39219   0.00000  Uiso   1.00
P4     P     0.06233   0.09526   0.43393   0.00000  Uiso   1.00
C5     C     0.00917   0.12193   0.48606   0.00000  Uiso   1.00
C6     C     0.00751   0.62714   0.48743   0.00000  Uiso   1.00
P7     P     0.06108   0.64811   0.43516   0.00000  Uiso   1.00
P8     P    -0.06233   0.59526   0.39341   0.00000  Uiso   1.00
C9     C    -0.00917   0.62193   0.34128   0.00000  Uiso   1.00
C10    C    -0.00751   0.12714   0.33991   0.00000  Uiso   1.00
P11    P     0.06108   0.85189   0.60062   0.00000  Uiso   1.00
P12    P    -0.06233   0.90474   0.55888   0.00000  Uiso   1.00
C13    C    -0.00917   0.87807   0.50675   0.00000  Uiso   1.00
C14    C    -0.00751   0.37286   0.50538   0.00000  Uiso   1.00
P15    P    -0.06108   0.35189   0.55766   0.00000  Uiso   1.00
P16    P     0.06233   0.40474   0.59940   0.00000  Uiso   1.00
C17    C     0.00917   0.37807   0.65153   0.00000  Uiso   1.00
C18    C     0.00751   0.87286   0.65290   0.00000  Uiso   1.00
P19    P    -0.06108   0.14811   0.72313   0.00000  Uiso   1.00
P20    P     0.06233   0.09526   0.76487   0.00000  Uiso   1.00
C21    C     0.00917   0.12193   0.81700   0.00000  Uiso   1.00
C22    C     0.00751   0.62714   0.81837   0.00000  Uiso   1.00
P23    P     0.06108   0.64811   0.76609   0.00000  Uiso   1.00
P24    P    -0.06233   0.59526   0.72435   0.00000  Uiso   1.00
C25    C    -0.00917   0.62193   0.67222   0.00000  Uiso   1.00
C26    C    -0.00751   0.12714   0.67085   0.00000  Uiso   1.00
C27    C    -0.00917   0.87807   0.83769   0.00000  Uiso   1.00
C28    C    -0.00751   0.37286   0.83632   0.00000  Uiso   1.00
loop_
_geom_bond_atom_site_label_1
_geom_bond_atom_site_label_2
_geom_bond_distance
_geom_bond_site_symmetry_2
_ccdc_geom_bond_type
C1     C10     1.445   .     S
C1     C9      1.438   .     S
C2     C9      1.445   .     S
C2     C10     1.438   1_565 S
P3     P4      2.299   .     S
P3     P8      2.285   .     S
P3     C10     1.859   .     S
P4     C5      1.854   .     S
P4     P7      2.285   1_545 S
C5     C14     1.445   .     S
C5     C13     1.438   1_545 S
C6     P7      1.859   .     S
C6     C13     1.445   .     S
C6     C14     1.438   .     S
P7     P8      2.299   .     S
P7     P4      2.285   1_565 S
P8     C9      1.854   .     S
C10    C2      1.438   1_545 S
P11    P12     2.299   .     S
P11    P16     2.285   .     S
P11    C18     1.859   .     S
P12    C13     1.854   .     S
P12    P15     2.285   1_565 S
C13    C5      1.438   1_565 S
C14    P15     1.859   .     S
P15    P16     2.299   .     S
P15    P12     2.285   1_545 S
P16    C17     1.854   .     S
C17    C26     1.445   .     S
C17    C25     1.438   .     S
C18    C25     1.445   .     S
C18    C26     1.438   1_565 S
P19    P20     2.299   .     S
P19    P24     2.285   .     S
P19    C26     1.859   .     S
P20    C21     1.854   .     S
P20    P23     2.285   1_545 S
C21    C28     1.445   .     S
C21    C27     1.438   1_545 S
C22    P23     1.859   .     S
C22    C27     1.445   .     S
C22    C28     1.438   .     S
P23    P24     2.299   .     S
P23    P20     2.285   1_565 S
P24    C25     1.854   .     S
C26    C18     1.438   1_545 S
C27    C21     1.438   1_565 S
