data_ribbon2b
_audit_creation_date              2021-06-02
_audit_creation_method            'Materials Studio'
_symmetry_space_group_name_H-M    'P1'
_symmetry_Int_Tables_number       1
_symmetry_cell_setting            triclinic
loop_
_symmetry_equiv_pos_as_xyz
  x,y,z
_cell_length_a                    14.5653
_cell_length_b                    5.1100
_cell_length_c                    31.7700
_cell_angle_alpha                 90.0000
_cell_angle_beta                  90.0000
_cell_angle_gamma                 90.0000
loop_
_atom_site_label
_atom_site_type_symbol
_atom_site_fract_x
_atom_site_fract_y
_atom_site_fract_z
_atom_site_U_iso_or_equiv
_atom_site_adp_type
_atom_site_occupancy
P1     P     0.06290   0.85189   0.27164   0.00000  Uiso   1.00
P2     P    -0.06419   0.90474   0.22959   0.00000  Uiso   1.00
P3     P    -0.06290   0.35189   0.22836   0.00000  Uiso   1.00
P4     P     0.06419   0.40474   0.27041   0.00000  Uiso   1.00
C5     C     0.00944   0.37807   0.32292   0.00000  Uiso   1.00
C6     C     0.00773   0.87286   0.32429   0.00000  Uiso   1.00
P7     P    -0.06290   0.14811   0.39503   0.00000  Uiso   1.00
P8     P     0.06419   0.09526   0.43707   0.00000  Uiso   1.00
C9     C     0.00944   0.12193   0.48958   0.00000  Uiso   1.00
C10    C     0.00773   0.62714   0.49096   0.00000  Uiso   1.00
P11    P     0.06290   0.64811   0.43831   0.00000  Uiso   1.00
P12    P    -0.06419   0.59526   0.39626   0.00000  Uiso   1.00
C13    C    -0.00944   0.62193   0.34375   0.00000  Uiso   1.00
C14    C    -0.00773   0.12714   0.34237   0.00000  Uiso   1.00
P15    P    -0.06419   0.90474   0.56293   0.00000  Uiso   1.00
C16    C    -0.00944   0.87807   0.51042   0.00000  Uiso   1.00
C17    C    -0.00773   0.37286   0.50904   0.00000  Uiso   1.00
P18    P    -0.06290   0.35189   0.56169   0.00000  Uiso   1.00
loop_
_geom_bond_atom_site_label_1
_geom_bond_atom_site_label_2
_geom_bond_distance
_geom_bond_site_symmetry_2
_ccdc_geom_bond_type
P1     P2      2.299   .     S
P1     P4      2.285   .     S
P1     C6      1.859   .     S
P2     P3      2.285   1_565 S
P3     P4      2.299   .     S
P3     P2      2.285   1_545 S
P4     C5      1.854   .     S
C5     C14     1.445   .     S
C5     C13     1.438   .     S
C6     C13     1.445   .     S
C6     C14     1.438   1_565 S
P7     P8      2.299   .     S
P7     P12     2.285   .     S
P7     C14     1.859   .     S
P8     C9      1.854   .     S
P8     P11     2.285   1_545 S
C9     C17     1.445   .     S
C9     C16     1.438   1_545 S
C10    P11     1.859   .     S
C10    C16     1.445   .     S
C10    C17     1.438   .     S
P11    P12     2.299   .     S
P11    P8      2.285   1_565 S
P12    C13     1.854   .     S
C14    C6      1.438   1_545 S
P15    C16     1.854   .     S
P15    P18     2.285   1_565 S
C16    C9      1.438   1_565 S
C17    P18     1.859   .     S
P18    P15     2.285   1_545 S
