data_ribbon1a
_audit_creation_date              2021-06-02
_audit_creation_method            'Materials Studio'
_symmetry_space_group_name_H-M    'P1'
_symmetry_Int_Tables_number       1
_symmetry_cell_setting            triclinic
loop_
_symmetry_equiv_pos_as_xyz
  x,y,z
_cell_length_a                    14.5653
_cell_length_b                    15.3300
_cell_length_c                    10.5900
_cell_angle_alpha                 90.0000
_cell_angle_beta                  90.0000
_cell_angle_gamma                 90.0000
loop_
_atom_site_label
_atom_site_type_symbol
_atom_site_fract_x
_atom_site_fract_y
_atom_site_fract_z
_atom_site_U_iso_or_equiv
_atom_site_adp_type
_atom_site_occupancy
C1     C     0.00773   0.20905   0.47288   0.00000  Uiso   1.00
P2     P     0.06290   0.21604   0.31492   0.00000  Uiso   1.00
P3     P    -0.06419   0.19842   0.18878   0.00000  Uiso   1.00
C4     C    -0.00944   0.20731   0.03125   0.00000  Uiso   1.00
P5     P     0.06290   0.28396   0.81492   0.00000  Uiso   1.00
P6     P    -0.06419   0.30158   0.68878   0.00000  Uiso   1.00
C7     C    -0.00944   0.29269   0.53125   0.00000  Uiso   1.00
C8     C    -0.00773   0.12429   0.52712   0.00000  Uiso   1.00
P9     P    -0.06290   0.11730   0.68508   0.00000  Uiso   1.00
P10    P     0.06419   0.13491   0.81122   0.00000  Uiso   1.00
C11    C     0.00944   0.12602   0.96875   0.00000  Uiso   1.00
C12    C     0.00773   0.29095   0.97288   0.00000  Uiso   1.00
P13    P    -0.06290   0.38270   0.18508   0.00000  Uiso   1.00
P14    P     0.06419   0.36509   0.31122   0.00000  Uiso   1.00
C15    C     0.00944   0.37398   0.46875   0.00000  Uiso   1.00
C16    C     0.00773   0.54238   0.47288   0.00000  Uiso   1.00
P17    P     0.06290   0.54937   0.31492   0.00000  Uiso   1.00
P18    P    -0.06419   0.53175   0.18878   0.00000  Uiso   1.00
C19    C    -0.00944   0.54064   0.03125   0.00000  Uiso   1.00
C20    C    -0.00773   0.37571   0.02712   0.00000  Uiso   1.00
P21    P     0.06290   0.61730   0.81492   0.00000  Uiso   1.00
P22    P    -0.06419   0.63491   0.68878   0.00000  Uiso   1.00
C23    C    -0.00944   0.62602   0.53125   0.00000  Uiso   1.00
C24    C    -0.00773   0.45762   0.52712   0.00000  Uiso   1.00
P25    P    -0.06290   0.45063   0.68508   0.00000  Uiso   1.00
P26    P     0.06419   0.46825   0.81122   0.00000  Uiso   1.00
C27    C     0.00944   0.45936   0.96875   0.00000  Uiso   1.00
C28    C     0.00773   0.62429   0.97288   0.00000  Uiso   1.00
P29    P    -0.06290   0.71604   0.18508   0.00000  Uiso   1.00
P30    P     0.06419   0.69842   0.31122   0.00000  Uiso   1.00
C31    C     0.00944   0.70731   0.46875   0.00000  Uiso   1.00
C32    C    -0.00773   0.70905   0.02712   0.00000  Uiso   1.00
C33    C    -0.00773   0.79095   0.52712   0.00000  Uiso   1.00
P34    P    -0.06290   0.78396   0.68508   0.00000  Uiso   1.00
P35    P     0.06419   0.80158   0.81122   0.00000  Uiso   1.00
C36    C     0.00944   0.79269   0.96875   0.00000  Uiso   1.00
loop_
_geom_bond_atom_site_label_1
_geom_bond_atom_site_label_2
_geom_bond_distance
_geom_bond_site_symmetry_2
_ccdc_geom_bond_type
C1     P2      1.859   .     S
C1     C7      1.445   .     S
C1     C8      1.438   .     S
P2     P3      2.299   .     S
P2     P14     2.285   .     S
P3     C4      1.854   .     S
C4     C12     1.445   1_554 S
C4     C11     1.438   1_554 S
P5     P6      2.299   .     S
P5     P10     2.285   .     S
P5     C12     1.859   .     S
P6     C7      1.854   .     S
P6     P25     2.285   .     S
C7     C15     1.438   .     S
C8     P9      1.859   .     S
P9     P10     2.299   .     S
P10    C11     1.854   .     S
C11    C4      1.438   1_556 S
C12    C4      1.445   1_556 S
C12    C20     1.438   1_556 S
P13    P14     2.299   .     S
P13    P18     2.285   .     S
P13    C20     1.859   .     S
P14    C15     1.854   .     S
C15    C24     1.445   .     S
C16    P17     1.859   .     S
C16    C23     1.445   .     S
C16    C24     1.438   .     S
P17    P18     2.299   .     S
P17    P30     2.285   .     S
P18    C19     1.854   .     S
C19    C28     1.445   1_554 S
C19    C27     1.438   1_554 S
C20    C27     1.445   1_554 S
C20    C12     1.438   1_554 S
P21    P22     2.299   .     S
P21    P26     2.285   .     S
P21    C28     1.859   .     S
P22    C23     1.854   .     S
P22    P34     2.285   .     S
C23    C31     1.438   .     S
C24    P25     1.859   .     S
P25    P26     2.299   .     S
P26    C27     1.854   .     S
C27    C20     1.445   1_556 S
C27    C19     1.438   1_556 S
C28    C19     1.445   1_556 S
C28    C32     1.438   1_556 S
P29    P30     2.299   .     S
P29    C32     1.859   .     S
P30    C31     1.854   .     S
C31    C33     1.445   .     S
C32    C36     1.445   1_554 S
C32    C28     1.438   1_554 S
C33    P34     1.859   .     S
P34    P35     2.299   .     S
P35    C36     1.854   .     S
C36    C32     1.445   1_556 S
